%chk=water_potassium_cluster_md_positive_LB.chk
%mem=30GB
%nprocshared=32
#p B3LYP/6-31+G(3df,2p) opt pop=full

Good start of the cluster from gromacs (positive)

1 1
K    15.000    15.000    15.000
O    14.708    16.122    19.776
O    12.257    10.592    16.683
O    15.355    18.311    16.097
O    14.199    14.984    11.893
O    14.431    19.646    13.984
O    17.833    14.233    14.703
O    16.721    14.634    19.044
O    17.204    12.592    16.849
O    13.426    15.162    17.689
O    13.809    12.765    13.475
O    16.755    16.152    16.521
O    18.123    17.768    13.091
O    15.157    16.918    13.313
O    12.227    15.550    14.980
O    13.784    12.595    16.240
O    12.077    17.818    13.825
H    14.016    15.819    19.188
H    14.253    16.647    20.433
H    11.505    10.166    16.271
H    12.394    10.104    17.496
H    15.599    19.000    16.715
H    15.969    17.599    16.276
H    14.445    15.727    12.443
H    13.942    15.377    11.059
H    14.845    19.289    14.770
H    14.770    20.539    13.920
H    18.623    13.966    14.233
H    17.773    13.623    15.438
H    15.902    15.053    19.308
H    17.226    14.563    19.854
H    17.097    13.381    17.381
H    16.509    12.006    17.148
H    12.666    15.480    17.201
H    13.391    14.210    17.594
H    13.292    12.012    13.189
H    13.588    13.458    12.853
H    17.657    15.973    16.256
H    16.686    15.783    17.401
H    18.743    17.821    12.364
H    18.390    16.989    13.578
H    16.072    17.171    13.195
H    14.696    17.745    13.457
H    11.372    15.218    14.706
H    12.208    16.479    14.750
H    14.046    12.348    15.353
H    13.086    11.980    16.464
H    11.541    18.188    13.124
H    12.647    18.537    14.096

